/*--------------------------------*- C++ -*----------------------------------*\
  =========                 |
  \\      /  F ield         | OpenFOAM: The Open Source CFD Toolbox
   \\    /   O peration     | Website:  https://openfoam.org
    \\  /    A nd           | Version:  12
     \\/     M anipulation  |
\*---------------------------------------------------------------------------*/
FoamFile
{
    format      ascii;
    class       volScalarField;
    location    "0";
    object      p;
}
// * * * * * * * * * * * * * * * * * * * * * * * * * * * * * * * * * * * * * //

pOut            0.2;

dimensions      [ 1 -1 -2 0 0 0 0 ];

internalField   uniform 0;

boundaryField
{
    cyclic
    {
        type            cyclic;
    }
    cyclicSlip
    {
        type            cyclicSlip;
    }
    nonConformalCyclic
    {
        type            nonConformalCyclic;
        value           uniform 0;
    }
    nonConformalError
    {
        type            nonConformalError;
    }
    empty
    {
        type            empty;
    }
    processor
    {
        type            processor;
        value           uniform 0;
    }
    processorCyclic
    {
        type            processorCyclic;
        value           uniform 0;
    }
    nonConformalProcessorCyclic
    {
        type            nonConformalProcessorCyclic;
        value           uniform 0;
    }
    symmetryPlane
    {
        type            symmetryPlane;
    }
    symmetry
    {
        type            symmetry;
    }
    wedge
    {
        type            wedge;
    }
    internal
    {
        type            internal;
    }
    inlet
    {
        type            fixedValue;
        value           uniform 0;
    }
    outlet
    {
        type            totalPressure;
        p0              uniform 20000;
    }
    wall
    {
        type            zeroGradient;
    }
    frontAndBack
    {
        type            empty;
    }
    "nonCouple.*"
    {
        type            zeroGradient;
    }
}


// ************************************************************************* //
