/*--------------------------------*- C++ -*----------------------------------*\
  =========                 |
  \\      /  F ield         | OpenFOAM: The Open Source CFD Toolbox
   \\    /   O peration     | Website:  https://openfoam.org
    \\  /    A nd           | Version:  12
     \\/     M anipulation  |
\*---------------------------------------------------------------------------*/
FoamFile
{
    format      ascii;
    class       dictionary;
    location    "constant";
    object      dynamicMeshDict;
}
// * * * * * * * * * * * * * * * * * * * * * * * * * * * * * * * * * * * * * //

mover1
{
    type            motionSolver;

    libs            ("libfvMotionSolvers.so");

    motionSolver    solidBody;

    cellZone        gearCellsA;

    solidBodyMotionFunction  rotatingMotion;

    origin        (0 0 0);
    axis          (0 0 1);

    omega         200;
}

mover2
{
    type            motionSolver;

    libs            ("libfvMotionSolvers.so");

    motionSolver    solidBody;

    cellZone        gearCellsB;

    solidBodyMotionFunction  rotatingMotion;

    origin        (0 0 0);
    axis          (0 0 1);

    omega         -200;
}




topoChanger
{
    type    meshToMesh;

    libs    ("libmeshToMeshTopoChanger.so");

    times
    (
        #include "$FOAM_CASE/constant/meshTimes"
    );
    
    begin           0;
    cycle           0.1;
    timeDelta       5e-4;
}

// ************************************************************************* //
