/*--------------------------------*- C++ -*----------------------------------*\
  =========                 |
  \\      /  F ield         | OpenFOAM: The Open Source CFD Toolbox
   \\    /   O peration     | Website:  https://openfoam.org
    \\  /    A nd           | Version:  12
     \\/     M anipulation  |
\*---------------------------------------------------------------------------*/
FoamFile
{
    format      ascii;
    class       dictionary;
    location    "constant";
    object      dynamicMeshDict;
}
// * * * * * * * * * * * * * * * * * * * * * * * * * * * * * * * * * * * * * //


mover
{
    type            motionSolver;

    libs            ("libfvMotionSolvers.so");

    motionSolver    solidBody;

    cellZone        rotating;

    solidBodyMotionFunction  rotatingMotion;

    origin        (0 0 0);
    axis          (1 0 0);

    omega         60 [rpm];
}


topoChanger
{
    type    meshToMesh;

    libs    ("libmeshToMeshTopoChanger.so");

    times
    (
        #include "$FOAM_CASE/constant/meshTimes"
    );

    repeat          0.1;
    timeDelta       0.1;
}

// ************************************************************************* //
