/*--------------------------------*- C++ -*----------------------------------*\
  =========                 |
  \\      /  F ield         | OpenFOAM: The Open Source CFD Toolbox
   \\    /   O peration     | Website:  https://openfoam.org
    \\  /    A nd           | Version:  12
     \\/     M anipulation  |
\*---------------------------------------------------------------------------*/
FoamFile
{
    format      ascii;
    class       dictionary;
    location    "system";
    object      createNonConformalCouplesDict;
}
// * * * * * * * * * * * * * * * * * * * * * * * * * * * * * * * * * * * * * //

fields no;

nonConformalCouples
{
    NCC_interf
    {
        patches         (interface1PatchAMI interface2PatchAMI);
        transform       none;
    }

    NCC_circ_1
    {
        patches         (circ1PatchAMI circ1OuterPatchAMI);
        transform       none;
    }

    NCC_circ_2
    {
        patches         (circ2PatchAMI circ2OuterPatchAMI);
        transform       none;
    }
}

// ************************************************************************* //
