/*--------------------------------*- C++ -*----------------------------------*\
  =========                 |
  \\      /  F ield         | OpenFOAM: The Open Source CFD Toolbox
   \\    /   O peration     | Website:  https://openfoam.org
    \\  /    A nd           | Version:  12
     \\/     M anipulation  |
\*---------------------------------------------------------------------------*/
FoamFile
{
    format      ascii;
    class       dictionary;
    object      topoSetDict;
}
// * * * * * * * * * * * * * * * * * * * * * * * * * * * * * * * * * * * * * //



actions
(
    {
        name    gearCellsA;
        type    cellSet;     
        action  new;         
        source  regionToCell; 
        sourceInfo
        {
            insidePoints 
            regionName ?;
        }
    }

    // {
    //     name    gearCellsA;
    //     type    cellSet;     
    //     action  new;         
    //     source  regionToCell; 
    //     sourceInfo
    //     {
    //         regionName gearA;
    //     }
    // }
);




// ************************************************************************* //
